@<TRIPOS>MOLECULE
ligand.mol2
31 33 1 0 0
SMALL
NO_CHARGES


@<TRIPOS>ATOM
      1 O5'       -15.9579    0.8677    0.4958 O.3       1 UVC1        0.0000
      2 C5'       -15.6025    1.2786   -0.8259 C.3       1 UVC1        0.0000
      3 C4'       -14.1011    1.2494   -0.8730 C.3       1 UVC1        0.0000
      4 O4'       -13.6937    2.0071    0.3132 O.3       1 UVC1        0.0000
      5 C3'       -13.3533   -0.1141   -0.9081 C.3       1 UVC1        0.0000
      6 O3'       -13.2405   -0.7844   -2.2128 O.3       1 UVC1        0.0000
      7 C2'       -12.0157    0.4045   -0.4458 C.3       1 UVC1        0.0000
      8 O2'       -11.2077    0.8401   -1.5232 O.3       1 UVC1        0.0000
      9 C1'       -12.2821    1.6652    0.4202 C.3       1 UVC1        0.0000
     10 N1        -12.2697    1.2026    1.8601 N.pl3     1 UVC1        0.0000
     11 C2        -11.0697    1.1392    2.4566 C.2       1 UVC1        0.0000
     12 O2        -10.0166    1.4920    1.9765 O.2       1 UVC1        0.0000
     13 N3        -11.1726    0.7391    3.7455 N.pl3     1 UVC1        0.0000
     14 C4        -12.2987    0.3120    4.4252 C.2       1 UVC1        0.0000
     15 O4        -12.1829   -0.1198    5.5650 O.2       1 UVC1        0.0000
     16 C5        -13.5092    0.3790    3.6713 C.2       1 UVC1        0.0000
     17 C6        -13.4546    0.8409    2.4248 C.2       1 UVC1        0.0000
     18 V         -11.5476   -0.3422   -2.9438 P.3       1 UVC1        0.0000
     19 O1V       -11.1072    0.7342   -4.2454 O.3       1 UVC1        0.0000
     20 O2V       -12.3368   -1.3737   -4.3459 O.3       1 UVC1        0.0000
     21 O3V       -10.2496   -1.4963   -2.7554 O.3       1 UVC1        0.0000
     22 H1        -16.5166    0.0132    0.4389 H         1 UVC1        0.0000
     23 H21       -16.0433    2.1138   -1.0607 H         1 UVC1        0.0000
     24 H22       -15.9881    0.5382   -1.3978 H         1 UVC1        0.0000
     25 H3        -13.6792    1.6625   -1.6909 H         1 UVC1        0.0000
     26 H5        -14.0452   -0.8170   -0.6113 H         1 UVC1        0.0000
     27 H7        -11.5767   -0.4120    0.0200 H         1 UVC1        0.0000
     28 H9        -11.6293    2.3916    0.2434 H         1 UVC1        0.0000
     29 H13       -10.2806    0.6924    4.2725 H         1 UVC1        0.0000
     30 H16       -14.3542    0.0822    4.1464 H         1 UVC1        0.0000
     31 H17       -14.3053    0.8773    1.8583 H         1 UVC1        0.0000